@<TRIPOS>MOLECULE
DA0
   15    14     1     0     0
SMALL
bcc


@<TRIPOS>ATOM
      1 CB           1.4330    -1.3350     2.0450 c3         1 DA0      -0.132100
      2 CA           1.3640    -0.5710     0.7330 c3         1 DA0       0.060500
      3 N           -0.0370    -0.5050     0.3650 n3         1 DA0      -0.899800
      4 C            1.9100     0.8040     0.8770 c          1 DA0       0.578100
      5 O            3.0560     0.9900     1.1770 o          1 DA0      -0.531100
      6 HB1          2.4010    -1.2030     2.5500 hc         1 DA0       0.045367
      7 HB2          1.1840    -2.3860     1.8160 hc         1 DA0       0.045367
      8 HB3          0.5750    -0.9520     2.6660 hc         1 DA0       0.045367
      9 HA           1.9350    -1.1090    -0.0430 h1         1 DA0       0.087700
     10 H2          -0.4770     0.2240     0.9510 hn         1 DA0       0.350800
     11 H3          -0.4510    -1.4330     0.6170 hn         1 DA0       0.350800
     12 C1           1.0140     1.9880     0.6430 c3         2 MEH      -0.199100
     13 H11          0.4640     1.8260    -0.2900 hc         2 MEH       0.065700
     14 H12          1.6130     2.9160     0.5990 hc         2 MEH       0.065700
     15 H13          0.3070     2.0450     1.5020 hc         2 MEH       0.065700
@<TRIPOS>BOND
     1     1     2 1   
     2     1     6 1   
     3     1     7 1   
     4     1     8 1   
     5     2     3 1   
     6     2     4 1   
     7     2     9 1   
     8     3    10 1   
     9     3    11 1   
    10     4     5 2   
    11     4    12 1   
    12    12    13 1   
    13    12    14 1   
    14    12    15 1   
@<TRIPOS>SUBSTRUCTURE
     1 DA0         1 TEMP              0 ****  ****    0 ROOT
