
     RDKit          2D

  4  3  0  0  0  0  0  0  0  0999 V2000
    5.1917   -4.8792    0.0000 C   0  0  0  0  0  0  0  0  0  0  0  0
    5.1750   -4.1750    0.0000 O   0  0  0  0  0  0  0  0  0  0  0  0
    4.5917   -5.2667    0.0000 R   0  0  0  0  0  0  0  0  0  0  0  0
    5.8125   -5.2375    0.0000 C   0  0  0  0  0  0  0  0  0  0  0  0
  2  1  2  0
  3  1  1  0
  4  1  1  0
M  RGP  1   3   2   1
M  END

>  <monomerType>
Cap

>  <symbol>
AcOH

>  <author>
RPBS

>  <name>
Acetic acid

>  <naturalAnalog>


>  <polymerType>
PEPTIDE

>  <createDate>
Fri Oct 11 17:01:34 2024

>  <label>
R2

>  <capGroupName>
OH

$$$$
