
  Ketcher 09191608162D 1   1.00000     0.00000     0

 60 65  0     0  0            999 V2000
   23.5974 -603.1411    0.0000 C   0  0  0  0  0  0  0  0  0  0  0  0
   23.5974 -602.1545    0.0000 C   0  0  0  0  0  0  0  0  0  0  0  0
   24.4519 -603.6345    0.0000 C   0  0  0  0  0  0  0  0  0  0  0  0
   25.3063 -603.1412    0.0000 C   0  0  0  0  0  0  0  0  0  0  0  0
   25.3063 -602.1545    0.0000 C   0  0  0  0  0  0  0  0  0  0  0  0
   24.4519 -601.6612    0.0000 O   0  0  0  0  0  0  0  0  0  0  0  0
   26.1608 -603.6345    0.0000 C   0  0  0  0  0  0  0  0  0  0  0  0
   27.0154 -603.1411    0.0000 C   0  0  0  0  0  0  0  0  0  0  0  0
   27.0154 -602.1545    0.0000 C   0  0  0  0  0  0  0  0  0  0  0  0
   26.1608 -601.6612    0.0000 C   0  0  0  0  0  0  0  0  0  0  0  0
   22.7429 -601.6612    0.0000 C   0  0  0  0  0  0  0  0  0  0  0  0
   21.8885 -602.1545    0.0000 C   0  0  0  0  0  0  0  0  0  0  0  0
   21.8885 -603.1411    0.0000 C   0  0  0  0  0  0  0  0  0  0  0  0
   22.7429 -603.6345    0.0000 C   0  0  0  0  0  0  0  0  0  0  0  0
   24.4519 -605.2131    0.0000 C   0  0  0  0  0  0  0  0  0  0  0  0
   23.5974 -605.7065    0.0000 C   0  0  0  0  0  0  0  0  0  0  0  0
   23.6220 -606.6931    0.0000 C   0  0  0  0  0  0  0  0  0  0  0  0
   24.4519 -607.1865    0.0000 C   0  0  0  0  0  0  0  0  0  0  0  0
   25.3063 -606.6931    0.0000 C   0  0  0  0  0  0  0  0  0  0  0  0
   25.3063 -605.7065    0.0000 C   0  0  0  0  0  0  0  0  0  0  0  0
   26.1608 -605.2131    0.0000 C   0  0  0  0  0  0  0  0  0  0  0  0
   26.1608 -604.2265    0.0000 O   0  0  0  0  0  0  0  0  0  0  0  0
   27.0153 -605.7065    0.0000 O   0  0  0  0  0  0  0  0  0  0  0  0
   22.7676 -607.1865    0.0000 C   0  0  0  0  0  0  0  0  0  0  0  0
   22.7676 -608.1731    0.0000 O   0  0  0  0  0  0  0  0  0  0  0  0
   27.8699 -603.6345    0.0000 C   0  0  0  0  0  0  0  0  0  0  0  0
   28.7243 -603.1411    0.0000 C   0  0  0  0  0  0  0  0  0  0  0  0
   28.7243 -602.1545    0.0000 C   0  0  0  0  0  0  0  0  0  0  0  0
   27.8699 -601.6612    0.0000 N   0  0  0  0  0  0  0  0  0  0  0  0
   21.0341 -601.6612    0.0000 N   0  0  0  0  0  0  0  0  0  0  0  0
   20.1797 -602.1545    0.0000 C   0  0  0  0  0  0  0  0  0  0  0  0
   20.1797 -603.1411    0.0000 C   0  0  0  0  0  0  0  0  0  0  0  0
   21.0341 -603.6345    0.0000 C   0  0  0  0  0  0  0  0  0  0  0  0
   21.0341 -604.6246    0.0000 C   0  0  0  0  0  0  0  0  0  0  0  0
   27.8699 -604.6246    0.0000 C   0  0  0  0  0  0  0  0  0  0  0  0
   20.1767 -605.1197    0.0000 S   0  0  0  0  0  0  0  0  0  0  0  0
   19.6833 -604.2652    0.0000 O   0  0  0  0  0  0  0  0  0  0  0  0
   20.6700 -605.9741    0.0000 O   0  0  0  0  0  0  0  0  0  0  0  0
   19.3222 -605.6129    0.0000 O   0  0  0  0  0  0  0  0  0  0  0  0
   28.7273 -605.1197    0.0000 S   0  0  0  0  0  0  0  0  0  0  0  0
   28.2340 -605.9741    0.0000 O   0  0  0  0  0  0  0  0  0  0  0  0
   29.2207 -604.2652    0.0000 O   0  0  0  0  0  0  0  0  0  0  0  0
   29.5818 -605.6129    0.0000 O   0  0  0  0  0  0  0  0  0  0  0  0
   19.3222 -601.6595    0.0000 C   0  0  0  0  0  0  0  0  0  0  0  0
   20.1797 -601.1644    0.0000 C   0  0  0  0  0  0  0  0  0  0  0  0
   29.5818 -601.6595    0.0000 C   0  0  0  0  0  0  0  0  0  0  0  0
   28.7243 -601.1644    0.0000 C   0  0  0  0  0  0  0  0  0  0  0  0
   27.8699 -600.6710    0.0000 C   0  0  0  0  0  0  0  0  0  0  0  0
   21.0341 -600.6710    0.0000 C   0  0  0  0  0  0  0  0  0  0  0  0
   20.9954 -607.2244    0.0000 C   0  0  0  0  0  0  0  0  0  0  0  0
   20.1469 -606.7141    0.0000 C   0  0  0  0  0  0  0  0  0  0  0  0
   19.2808 -607.1936    0.0000 C   0  0  0  0  0  0  0  0  0  0  0  0
   18.4324 -606.6833    0.0000 O   0  0  0  0  0  0  0  0  0  0  0  0
   17.5662 -607.1630    0.0000 C   0  0  0  0  0  0  0  0  0  0  0  0
   16.7222 -606.6454    0.0000 C   0  0  0  0  0  0  0  0  0  0  0  0
   16.7483 -605.6557    0.0000 C   0  0  0  0  0  0  0  0  0  0  0  0
   15.9043 -605.1383    0.0000 O   0  0  0  0  0  0  0  0  0  0  0  0
   15.8520 -607.1176    0.0000 O   0  0  0  0  0  0  0  0  0  0  0  0
   14.6555 -607.1176    0.0000 C   0  0  0  0  0  0  0  0  0  0  0  0
   21.8615 -606.7447    0.0000 N   0  0  0  0  0  0  0  0  0  0  0  0
  1  2  2  0     0  0
  1  3  1  0     0  0
  3  4  2  0     0  0
  4  5  1  0     0  0
  5  6  1  0     0  0
  6  2  1  0     0  0
  4  7  1  0     0  0
  7  8  2  0     0  0
  8  9  1  0     0  0
  9 10  1  0     0  0
 10  5  2  0     0  0
  2 11  1  0     0  0
 11 12  2  0     0  0
 12 13  1  0     0  0
 13 14  2  0     0  0
 14  1  1  0     0  0
  3 15  1  0     0  0
 15 16  1  0     0  0
 16 17  2  0     0  0
 17 18  1  0     0  0
 18 19  2  0     0  0
 19 20  1  0     0  0
 20 15  2  0     0  0
 20 21  1  0     0  0
 21 22  2  0     0  0
 21 23  1  0     0  0
 17 24  1  0     0  0
 24 25  2  0     0  0
 24 60  1  0     0  0
  8 26  1  0     0  0
 26 27  2  0     0  0
 27 28  1  0     0  0
 28 29  1  0     0  0
 29  9  2  0     0  0
 12 30  1  0     0  0
 30 31  1  0     0  0
 31 32  1  0     0  0
 32 33  2  0     0  0
 33 13  1  0     0  0
 33 34  1  0     0  0
 34 36  1  0     0  0
 26 35  1  0     0  0
 35 40  1  0     0  0
 36 39  1  0     0  0
 36 38  2  0     0  0
 36 37  2  0     0  0
 40 43  1  0     0  0
 40 42  2  0     0  0
 40 41  2  0     0  0
 31 44  1  0     0  0
 31 45  1  0     0  0
 28 46  1  0     0  0
 28 47  1  0     0  0
 29 48  1  0     0  0
 30 49  1  0     0  0
 60 50  1  0     0  0
 50 51  1  0     0  0
 51 52  1  0     0  0
 52 53  1  0     0  0
 53 54  1  0     0  0
 54 55  1  0     0  0
 55 56  1  0     0  0
 56 57  1  0     0  0
 55 58  1  0     0  0
 58 59  1  0     0  0
A   59
R1
M  CHG  2  29   1  43  -1
M  END
> <monomerType>
Undefined

> <symbol>
3Alex594N

> <smiles>
C12=C(OC=3C(=C1C=4C=C(C=CC4C(=O)O)C(=O)NCCCOCC(CO)O[H:1])C=C5C(C3)=[N+](C(C=C5CS([O-])(=O)=O)(C)C)C)C=C6C(=C2)C(=CC(N6C)(C)C)CS(O)(=O)=O

> <author>
Ionis Inc

> <name>
3'- Alexa Fluor 594 (IDT 3Alex594N)

> <naturalAnalog>
-

> <polymerType>
CHEM

> <id>
2700

> <createDate>
Mon Jul 16 21:34:33 CEST 2018

> <alternateId>
R1-H

> <id (#1)>
0

> <label>
R1

> <capGroupSMILES>
[*:1][H]

> <capGroupName>
H

> <alternateId (#1)>


> <id (#2)>


> <label (#1)>


> <capGroupSMILES (#1)>


> <capGroupName (#1)>


> <alternateId (#2)>


> <id (#3)>


> <label (#2)>


> <capGroupSMILES (#2)>


> <capGroupName (#2)>


$$$$
