
     RDKit          2D

  7  6  0  0  0  0  0  0  0  0999 V2000
    0.3510    1.5466    0.0000 N   0  0  0  0  0  0  0  0  0  0  0  0
   -0.0615    0.8321    0.0000 C   0  0  0  0  0  0  0  0  0  0  0  0
    0.3510    0.1176    0.0000 C   0  0  0  0  0  0  0  0  0  0  0  0
   -0.0615   -0.5968    0.0000 C   0  0  0  0  0  0  0  0  0  0  0  0
    0.3510   -1.3113    0.0000 O   0  0  0  0  0  0  0  0  0  0  0  0
   -0.8865   -0.5968    0.0000 R#  0  0  0  0  0  0  0  0  0  0  0  0
    0.0000    0.0000    0.0000 R#  0  0  0  0  0  0  0  0  0  0  0  0
  2  1  1  0
  3  2  1  0
  4  3  1  0
  4  5  2  0
  4  6  1  0
  1  7  1  0
M  RGP  2   6   2   7   1
V    6 *
V    7 *
M  END
>  <m_name>  (1) 
Alanine

>  <symbol>  (1) 
A

>  <m_abbr>  (1) 
A

>  <m_type>  (1) 
aa

>  <m_subtype>  (1) 
natural

>  <m_Rgroups>  (1) 
H,OH,None,None

>  <m_RgroupIdx>  (1) 
6,5,None,None

>  <m_attachmentPointIdx>  (1) 
0,3,None,None

>  <natAnalog>  (1) 
A

>  <pdbName>  (1) 
ALA

$$$$
