
     RDKit          2D

  7  6  0  0  0  0  0  0  0  0999 V2000
    0.3510    1.5466    0.0000 N   0  0  0  0  0  0  0  0  0  0  0  0
   -0.0615    0.8321    0.0000 C   0  0  0  0  0  0  0  0  0  0  0  0
    0.3510    0.1176    0.0000 C   0  0  0  0  0  0  0  0  0  0  0  0
   -0.0615   -0.5968    0.0000 C   0  0  0  0  0  0  0  0  0  0  0  0
    0.3510   -1.3113    0.0000 O   0  0  0  0  0  0  0  0  0  0  0  0
   -0.8865   -0.5968    0.0000 R   0  0  0  0  0  0  0  0  0  0  0  0
    0.0000    0.0000    0.0000 R   0  0  0  0  0  0  0  0  0  0  0  0
  2  1  1  0
  3  2  1  0
  4  3  1  0
  4  5  2  0
  4  6  1  0
  1  7  1  0
M  RGP  2   6   2   7   1
M  END

>  <monomerType>
Backbone

>  <symbol>
A

>  <author>
RPBS

>  <name>
Alanine

>  <naturalAnalog>
A

>  <polymerType>
PEPTIDE

>  <createDate>
Fri Oct 11 12:10:40 2024

>  <label>
R2

>  <capGroupName>
OH

>  <label (#1)>
R1

>  <capGroupName (#1)>
H

>  <label (#2)>


>  <capGroupName (#2)>


$$$$
